[TITLE]

[JUNCTIONS]
 N1026                                71.5600  ;				
 N1027                                72.7400  ;				
 N1028                                68.7400  ;				
 N1029                                71.0700  ;				
 N1030                                71.4800  ;				
 N1031                                74.1100  ;				
 N1032                                73.7600  ;				
 N1033                                74.7700  ;				
 N1034                                74.3100  ;				
 N1035                                73.9700  ;				
 N1036                                74.0300  ;				
 N1037                                69.6900  ;				
 N1038                                70.0900  ;				
 N1039                                76.8600  ;				
 N1040                                72.3000  ;				
 N1041                                66.0100  ;				
 N1042                                65.9600  ;				
 N1043                                66.7500  ;				
 N1044                                66.7100  ;				
 N1045                                69.7100  ;				
 N1046                                70.1400  ;				
 N1047                                71.0300  ;				
 N1048                                71.9100  ;				
 N1049                                68.6700  ;				
 N1050                                69.3900  ;				
 N1051                                67.8100  ;				
 N1052                                67.8100  ;				
 N1053                                67.8900  ;				
 N1054                                68.0000  ;				
 N1055                                71.9400  ;				
 N1056                                70.3600  ;				
 N1057                                70.0000  ;				
 N1058                                70.1300  ;				
 N1060                                80.0000  ;				
 N1061                                80.0000  ;				
 N1062                                65.8300  ;				
 N1063                                79.4300  ;				
 N1064                                59.9700  ;				
 N1065                                62.8000  ;				
 N1066                                76.9400  ;				
 N1067                                82.9800  ;				
 N1068                                53.4500  ;				
 N1069                                50.8600  ;				
 N1070                                58.3800  ;				
 N1072                                51.9200  ;				
 N1073                                68.3800  ;				
 N1074                                68.5100  ;				
 N1075                                57.9000  ;				
 N1076                                51.1000  ;				
 N1077                                51.4800  ;				
 N1078                                58.4300  ;				
 N1079                                88.1000  ;				
 N1080                                87.7200  ;				
 N1131                                69.7200  ;				
 N1137                                77.0100  ;				
 N1158                                67.3500  ;				
 N1159                                72.6500  ;				
 N1160                                74.4000  ;				
 N1161                                70.8900  ;				
 N1162                                70.8300  ;				
 N1163                                68.7000  ;				
 N1164                                62.1400  ;				
 N1165                                61.7700  ;				
 N1166                                62.9400  ;				
 N1167                                63.0300  ;				
 N1168                                66.6200  ;				
 N1169                                62.9400  ;				
 N1170                                63.7600  ;				
 N1171                                63.6800  ;				
 N1172                                62.8700  ;				
 N1173                                62.2200  ;				
 N1174                                65.5200  ;				
 N1175                                65.4200  ;				
 N1176                                64.1000  ;				
 N1177                                64.0200  ;				
 N1178                                64.0000  ;				
 N1179                                64.8200  ;				
 N1180                                64.7300  ;				
 N1181                                63.9200  ;				
 N1182                                64.7600  ;				
 N1183                                65.7600  ;				
 N1184                                65.7900  ;				
 N1185                                64.8400  ;				
 N1186                                65.7500  ;				
 N1187                                65.1800  ;				
 N1188                                65.2600  ;				
 N1189                                80.0000  ;				
 N1190                                80.0000  ;				
 N1191                                69.0800  ;				
 N1192                                61.1000  ;				
 N1193                                66.5200  ;				
 N1194                                66.3500  ;				
 N1195                                65.0900  ;				
 N1196                                64.9900  ;				
 N1197                                60.4400  ;				
 N1198                                60.3700  ;				
 N1199                                69.1800  ;				
 N1200                                58.3300  ;				
 N1201                                56.4400  ;				
 N1202                                58.1700  ;				
 N1203                                61.2500  ;				
 N1204                                69.2600  ;				
 N1205                                58.4800  ;				
 N1206                                58.8600  ;				
 N1207                                58.1700  ;				
 N1208                                57.1000  ;				
 N1209                                55.8800  ;				
 N1210                                58.4900  ;				
 N1211                                58.5500  ;				
 N1212                                59.1100  ;				
 N1213                                64.9700  ;				
 N1214                                66.5700  ;				
 N1215                                64.3400  ;				
 N1216                                61.3300  ;				
 N1217                                61.2900  ;				
 N1218                                60.3000  ;				
 N1219                                60.2200  ;				
 N1220                                59.0300  ;				
 N1221                                59.4600  ;				
 N1222                                59.1400  ;				
 N1223                                69.7100  ;				
 N1224                                69.7200  ;				
 N1225                                69.5600  ;				
 N1226                                69.6100  ;				
 N1227                                69.5100  ;				
 N1228                                69.6000  ;				
 N1229                                69.5200  ;				
 N1230                                59.7000  ;				
 N1231                                59.7100  ;				
 N1232                                59.1900  ;				
 N1233                                59.3300  ;				
 N1234                                66.2700  ;				
 N1235                                66.4000  ;				
 N1236                                64.4900  ;				
 N1237                                67.5700  ;				
 N1238                                67.5500  ;				
 N1239                                69.8400  ;				
 N1240                                69.7800  ;				
 N1241                                69.6600  ;				
 N1242                                54.5000  ;				
 N1243                                52.6300  ;				
 N1244                                61.7200  ;				
 N1245                                80.0000  ;				
 N1246                                85.9300  ;				
 N1247                                83.9900  ;				
 N1248                                83.3000  ;				
 N1249                                85.7200  ;				
 N1250                                79.9400  ;				
 N1251                                79.8100  ;				
 N1252                                77.1400  ;				
 N1253                                76.1400  ;				
 N1254                                80.2300  ;				
 N1255                                80.6100  ;				
 N1256                                81.9500  ;				
 N1257                                82.4700  ;				
 N1258                                86.6100  ;				
 N1259                                83.2000  ;				
 N1260                                83.3700  ;				
 N1261                                86.0300  ;				
 N1262                                87.6100  ;				
 N1263                                87.7800  ;				
 N1264                                85.7300  ;				
 N1265                                86.5800  ;				
 N1266                                81.9400  ;				
 N1267                                87.2500  ;				
 N1268                                87.2300  ;				
 N1269                                86.6200  ;				
 N1270                                86.9000  ;				
 N1271                                85.5300  ;				
 N1272                                79.4000  ;				
 N1273                                87.0100  ;				
 N1274                                86.8800  ;				
 N1275                                87.2300  ;				
 N1276                                87.9400  ;				
 N1277                                88.3800  ;				
 N1278                                88.4500  ;				
 N1279                                88.9000  ;				
 N1280                                83.1300  ;				
 N1281                                83.5100  ;				
 N1282                                82.2100  ;				
 N1283                                85.6300  ;				
 N1284                                79.1000  ;				
 N1285                                75.9200  ;				
 N1286                                76.1700  ;				
 N1287                                75.5700  ;				
 N1288                                75.2200  ;				
 N1289                                76.7700  ;				
 N1290                                93.6900  ;				
 N1291                                76.4400  ;				
 N1292                                74.7300  ;				
 N1293                                78.9200  ;				
 N1294                                67.2500  ;				
 N1295                                64.0400  ;				
 N1296                                64.0000  ;				
 N1297                                68.6600  ;				
 N1298                                57.0400  ;				
 N1299                                59.7300  ;				
 N1300                                59.8200  ;				
 N1301                                61.6800  ;				
 N1302                                76.9600  ;				
 N1303                                74.4000  ;				
 N1304                                82.3900  ;				
 N1305                                89.0500  ;				
 N1306                                90.9100  ;				
 N1307                                82.2800  ;				
 N1308                                85.0900  ;				
 N1309                                91.2700  ;				
 N1310                                87.1800  ;				
 N1311                                61.1000  ;				
 N1312                                76.4600  ;				
 N1313                                55.8600  ;				
 N1314                                71.2000  ;				
 N1315                                78.3400  ;				
 N1316                                74.9700  ;				
 N1317                                73.2200  ;				
 N1318                                73.5000  ;				
 N1319                                73.7400  ;				
 N1346                               121.9500  ;				
 N1347                               104.1000  ;				
 N1348                                94.9400  ;				
 N1349                                97.6200  ;				
 N1350                               106.2900  ;				
 N1351                               105.4700  ;				
 N1352                               108.3500  ;				
 N1354                               104.2100  ;				
 N1355                               104.0400  ;				
 N1356                               107.5200  ;				
 N1357                               100.1200  ;				
 N1358                               104.1400  ;				
 N1359                               103.8700  ;				
 N1360                               108.9100  ;				
 N1361                               109.5900  ;				
 N1362                               115.4100  ;				
 N1363                               107.7800  ;				
 N1364                               112.6600  ;				
 N1365                               117.3000  ;				
 N1366                               119.5600  ;				
 N1367                               122.4800  ;				
 N1368                               119.1300  ;				
 N1369                               122.1300  ;				
 N1370                               117.3000  ;				
 N1371                                94.9400  ;				
 N1372                                97.6400  ;				
 N1373                                89.0200  ;				
 N1374                                94.3100  ;				
 N1375                                98.7900  ;				
 N1376                                83.1100  ;				
 N1377                                86.5900  ;				
 N1378                                88.3300  ;				
 N1379                                91.4000  ;				
 N1380                                90.0100  ;				
 N1381                                92.6500  ;				
 N1382                                90.6900  ;				
 N1383                                94.8000  ;				
 N1384                                93.9200  ;				
 N1385                                97.3500  ;				
 N1386                                96.7400  ;				
 N1387                                95.4300  ;				
 N1388                                93.9400  ;				
 N1389                                92.0500  ;				
 N1390                                95.6700  ;				
 N1391                                97.3900  ;				
 N1392                                99.3400  ;				
 N1393                               101.7000  ;				
 N1394                               102.5200  ;				
 N1395                               101.3600  ;				
 N1396                               105.1500  ;				
 N1397                               105.7200  ;				
 N1398                               100.0300  ;				
 N1399                               105.0700  ;				
 N1400                               101.0000  ;				
 N1401                               102.8100  ;				
 N1402                                99.3100  ;				
 N1403                               101.0100  ;				
 N1404                               101.1400  ;				
 N1405                                98.5000  ;				
 N1406                                97.2700  ;				
 N1407                               105.5900  ;				
 N1408                               105.9400  ;				
 N1409                               106.7500  ;				
 N1410                               107.3900  ;				
 N1411                               107.7500  ;				
 N1412                               106.6800  ;				
 N1413                               107.1600  ;				
 N1414                               106.9500  ;				
 N1415                               100.8100  ;				
 N1416                                92.6500  ;				
 N1417                                98.3000  ;				
 N1418                               102.6700  ;				
 N1419                                91.7700  ;				
 N1420                                88.1900  ;				
 N1421                                95.7900  ;				
 N1422                                93.2400  ;				
 N1423                                87.2500  ;				
 N1424                                83.9400  ;				
 N1425                                79.0900  ;				
 N1426                                97.1000  ;				
 N1427                                94.3700  ;				
 N1428                                80.1000  ;				
 N1429                                80.3600  ;				
 N1430                                77.6600  ;				
 N1431                                82.5500  ;				
 N1432                                83.4300  ;				
 N1433                                79.2400  ;				
 N1434                                78.7900  ;				
 N1435                                81.2900  ;				
 N1436                                75.4700  ;				
 N1437                                77.7400  ;				
 N1438                                76.9500  ;				
 N1439                                72.4000  ;				
 N1440                                85.2100  ;				
 N1441                                75.1200  ;				
 N1442                                64.5500  ;				
 N1443                                65.6600  ;				
 N1444                                69.1900  ;				
 N1445                                70.6600  ;				
 N1446                                87.3800  ;				
 N1447                                89.1400  ;				
 N1448                                92.6900  ;				
 N1449                                91.6500  ;				
 N1450                                88.7500  ;				
 N1451                                86.0500  ;				
 N1452                                87.8900  ;				
 N1453                                93.5400  ;				
 N1454                                93.7100  ;				
 N1455                                88.9000  ;				
 N1456                                89.5600  ;				
 N1457                                91.3900  ;				
 N1458                                93.9700  ;				
 N1459                                93.9800  ;				
 N1460                                93.8800  ;				
 N1461                                93.8000  ;				
 N1462                                93.7300  ;				
 N1463                                93.7200  ;				
 N1464                                93.1500  ;				
 N1465                                85.7500  ;				
 N1466                                87.8500  ;				
 N1467                                87.5100  ;				
 N1468                                86.2700  ;				
 N1469                                90.3000  ;				
 N1470                                88.7600  ;				
 N1471                                88.0300  ;				
 N1472                                87.9000  ;				
 N1473                                84.6700  ;				
 N1474                                85.3800  ;				
 N1475                                89.4000  ;				
 N1476                                90.5400  ;				
 N1477                                88.8100  ;				
 N1478                                86.2700  ;				
 N1480                                91.9300  ;				
 N1481                                93.7000  ;				
 N1482                                94.2100  ;				
 N1483                                90.2300  ;				
 N1484                                89.3300  ;				
 N1485                                92.7900  ;				
 N1486                                92.6400  ;				
 N1487                                88.1600  ;				
 N1488                                87.1900  ;				
 N1489                                87.2700  ;				
 N1490                                83.9800  ;				
 N1491                                82.8700  ;				
 N1492                                81.9400  ;				
 N1493                                81.9600  ;				
 N1494                                83.1000  ;				
 N1495                                86.8800  ;				
 N1496                                87.5700  ;				
 N1497                                88.2400  ;				
 N1498                                88.6900  ;				
 N1499                                89.0800  ;				
 N1500                                86.4000  ;				
 N1501                                87.6900  ;				
 N1502                                90.1300  ;				
 N1503                                81.6100  ;				
 N1504                                80.4200  ;				
 N1505                                79.9300  ;				
 N1506                                78.5400  ;				
 N1507                                75.7000  ;				
 N1508                                75.6800  ;				
 N1509                                76.7800  ;				
 N1510                                80.4900  ;				
 N1511                                76.0600  ;				
 N1512                                81.5700  ;				
 N1513                                81.4900  ;				
 N1514                                80.0900  ;				
 N1515                                82.0700  ;				
 N1516                                80.8000  ;				
 N1517                                92.3800  ;				
 N1518                                92.5400  ;				
 N1519                                83.5400  ;				
 N1520                                77.0000  ;				
 N1521                                78.0000  ;				
 N1522                                78.4000  ;				
 N1523                                78.5800  ;				
 N1524                                78.6200  ;				
 N1525                                81.8300  ;				
 N1526                                81.4800  ;				
 N1527                                82.1700  ;				
 N1528                                81.1100  ;				
 N1529                                81.2300  ;				
 N1530                                77.7600  ;				
 N1531                                82.8100  ;				
 N1532                                77.2100  ;				
 N1533                                76.6700  ;				
 N1534                                75.5300  ;				
 N1535                                74.8000  ;				
 N1536                                75.1000  ;				
 N1537                                69.3600  ;				
 N1538                                56.8000  ;				
 N1539                                69.5300  ;				
 N1540                                74.6500  ;				
 N1541                                75.8100  ;				
 N1542                                73.1200  ;				
 N1543                                77.6800  ;				
 N1544                                76.7500  ;				
 N1545                                76.4400  ;				
 N1546                                72.0200  ;				
 N1547                                73.2100  ;				
 N1548                                71.7700  ;				
 N1549                                66.7100  ;				
 N1550                                61.4200  ;				
 N1551                                82.8000  ;				
 N1552                                76.8600  ;				
 N1553                                77.6600  ;				
 N1554                                60.0100  ;				
 N1555                                58.8200  ;				
 N1556                                59.9000  ;				
 N1557                                59.3200  ;				
 N1558                                57.5200  ;				
 N1559                                56.5700  ;				
 N1560                                56.0700  ;				
 N1561                                54.6000  ;				
 N1562                                62.6800  ;				
 N1563                                60.5600  ;				
 N1564                                56.2200  ;				
 N1565                                56.1400  ;				
 N1566                                54.9000  ;				
 N1567                                66.7300  ;				
 N1568                                61.0700  ;				
 N1569                                65.3000  ;				
 N1570                                72.8500  ;				
 N1571                                69.7400  ;				
 N1572                                75.9000  ;				
 N1573                                73.7400  ;				
 N1574                                69.6700  ;				
 N1575                                67.6900  ;				
 N1576                                63.9200  ;				
 N1577                                62.9500  ;				
 N1578                                75.5600  ;				
 N1579                                75.1500  ;				
 N1580                                67.3800  ;				
 N1581                                76.5800  ;				
 N1582                                73.7100  ;				
 N1583                                79.3300  ;				
 N1584                                78.3200  ;				
 N1585                                80.8200  ;				
 N1586                                67.6500  ;				
 N1587                                68.6900  ;				
 N1588                                65.9000  ;				
 N1589                                65.2600  ;				
 N1590                                66.1800  ;				
 N1591                                67.4000  ;				
 N1592                                64.2900  ;				
 N1593                                65.4400  ;				
 N1594                                65.3400  ;				
 N1595                                68.2600  ;				
 N1596                                69.8600  ;				
 N1597                                70.7800  ;				
 N1598                                70.8400  ;				
 N1599                                63.7700  ;				
 N1600                                71.2000  ;				
 N1601                                66.5300  ;				
 N1602                                71.2500  ;				
 N1603                                72.5600  ;				
 N1604                                68.7600  ;				
 N1605                                66.6500  ;				
 N1606                                57.5100  ;				
 N1607                                63.5100  ;				
 N1608                                63.4000  ;				
 N1609                                62.4200  ;				
 N1610                                67.8800  ;				
 N1611                                73.9000  ;				
 N1612                                68.4500  ;				
 N1613                                62.8600  ;				
 N1614                                67.8900  ;				
 N1617                                71.8000  ;				
 N1618                                69.3300  ;				
 N1619                                64.6000  ;				
 N1620                                64.6900  ;				
 N1621                                69.4800  ;				
 N1622                                69.2200  ;				
 N1623                                64.6800  ;				
 N1624                                63.8500  ;				
 N1625                                63.6300  ;				
 N1626                                66.8700  ;				
 N1627                                69.5300  ;				
 N1628                                70.5800  ;				
 N1629                                72.6400  ;				
 N1630                                78.5800  ;				
 N1631                                80.0400  ;				
 N1632                                77.8000  ;				
 N1633                                84.8800  ;				
 N1634                                84.6300  ;				
 N1635                                84.6500  ;				
 N1636                                83.7000  ;				
 N1637                                82.8900  ;				
 N1638                                84.6900  ;				
 N1639                                84.5200  ;				
 N1640                                80.5400  ;				
 N1641                                81.4700  ;				
 N1642                                80.1200  ;				
 N1643                                80.3200  ;				
 N1644                                80.0200  ;				
 N1645                                79.0000  ;				
 N1646                                78.5400  ;				
 N1647                                79.0900  ;				
 N1648                                79.8700  ;				
 N1649                                79.2100  ;				
 N1650                                78.8700  ;				
 N1651                                77.5000  ;				
 N1652                                74.9200  ;				
 N1653                                74.2800  ;				
 N1654                                76.9500  ;				
 N1655                                75.1100  ;				
 N1656                                79.2300  ;				
 N1657                                73.5400  ;				
 N1658                                74.3200  ;				
 N1659                                74.3200  ;				
 N1660                                70.4700  ;				
 N1661                                70.3600  ;				
 N1662                                69.2600  ;				
 N1663                                74.3800  ;				
 N1664                                72.0700  ;				
 N1665                                55.7800  ;				
 N1666                                55.4400  ;				
 N1667                                54.8800  ;				
 N1668                                56.0800  ;				
 N1669                                56.1900  ;				
 N1670                                58.0100  ;				
 N1671                                57.7100  ;				
 N1672                                64.8000  ;				
 N1673                                57.0600  ;				
 N1674                                75.8900  ;				
 N1675                                81.2200  ;				
 N1676                                76.5000  ;				
 N1677                                84.5900  ;				
 N1678                                87.6200  ;				
 N1679                                86.1200  ;				
 N1680                                84.5500  ;				
 N1681                                83.1100  ;				
 N1682                                79.7800  ;				
 N1683                                74.1500  ;				
 N1684                                78.2500  ;				
 N1685                                87.1700  ;				
 N1686                                89.2300  ;				
 N1687                                95.9900  ;				
 N1688                                97.4300  ;				
 N1689                                96.4500  ;				
 N1690                                97.9400  ;				
 N1691                                98.5500  ;				
 N1692                               103.3800  ;				
 N1693                                99.7200  ;				
 N1694                               100.1800  ;				
 N1695                                97.4100  ;				
 N1696                                96.9300  ;				
 N1697                                91.5000  ;				